RUNSPEC
        Testovaci model 1
= 4. NDIVIX NDIVIY NDIVIZ QRDIAL NUMRES QNNCON MXNAQN MXNAQC QDPORO QDPERM  MFSEGS
     9      9      2      F      1      F      0      0      F      F  /
= 6. OIL WAT GAS DGAS VOIL API PLY BRI NOTRC NWTRC NGTRC MISC GI SOLV SFT
     F   T   T    F    F   F   F   F   0     0     0     F    F   F   /
= 8. UNIT CONVENTION
     'METRIC'                                  /
=10. NRPVT  NPPVT  NTPVT NTROCC QROCKC QRCREV QROCKH QVEO2D QSURFT QMDIFF
     2      22     1     1      F      T      F      F      F   /
=12. NSSFUN NTS DIRK REVK VEOP HYST SCAL SDIR SREV NSEND NTEND 2PT NSMIS NTMIS
     26     1   F    T    F    F    T    F    T     1     1    F   1     1 /
=14. NDRXVD NTEQUL NDPRVD QUIESC QTHPRS QREVTH QMOBIL NTTRVD NSTRVD
     2      1      100    F      F      T      F      1      1         /
=16. NTFIP  QGRAID QINTRP QTDISP NTFREG QTDISK NRFREG NMFIPR
     4      F      F      F      0    /
=18. NWMAXZ NCWMAX NGMAXZ NWGMAX MAXLGR MAXCLS MCOARS LSTACK
     80     6      6     25      /
=20. QEXGOP NWFRIC NUPCOL
     F      0      5                           /
=22. MXMFLO MXMTHP MXMWFR MXMGFR MXMALQ NMMVFT
     0      0      0      0      0      0      /
=24. MXSFLO MXSTHP NMSVFT
     0      0      0                           /
=26. NAMAXZ NCAMAX NIFTBL NRIFTB
     5      2100   2      36    /  280
=28. DAY  MONTH  YEAR
     1    'JAN'  2010                          /
=30. QSOLVE NSTACK QFMTOU QFMTIN QUNOUT QUNINP NGDISK IDYNAM QOPT9P
     T      20     F      F      T      T       0      0    F /


--********************************************************************--
--****                     G  R  I  D                             ****--
--********************************************************************--
--
GRID

INCLUDE
  'INCLUDE/ZCORN' /

INCLUDE
  'INCLUDE/COORD' /

INCLUDE
  'INCLUDE/PERM' /

INCLUDE
  'INCLUDE/PORO' /

--EQUALS
--'PERMX'   20.0 5 5 1 7 1 1 /
--/

--'PERMX'   0.01  5 5 1 7 1 1 /
--/
--
--MULTIPLY
--'PERMX'   0.5  1 9 3 3 1 1 /
--/
--
--ADD
--'PERMX'   10    1 9 1 1  1 1 /
--/


COPY
   'PERMX' 'PERMY'  /
/
COPY
   'PERMX' 'PERMZ'  /
/

NEWTRAN

RPTGRID
-- DX DY DZ PX PY PZ MX MY MZ PORO NTG TOPS PORV DEPTH TX TY TZ
   0  0  0  1  0  0  0  0  0  1    0   0    0    0     0  0  0   0 0 0 0 0 0 0 0 0 /



--********************************************************************--
--****                       E  D  I  T                           ****--
--********************************************************************--

EDIT


--********************************************************************--
--****                      P  R  O  P  S                         ****--
--********************************************************************--

PROPS

DENSITY
-- (SURFACE CONDITIONS) ropa  voda, plyn
 800  1020.  0.6946 /

PVTW
-- Reference pressure, Water formation volume factor, compressibility, viscosity
  47.0  0.999   4.6E-5  1.01912  0.0 /

ROCK
--Dle Katze pro piskovec
  47.0  5.183E-5 /

-- loz.tepl. 23.9 'C
PVDG
--  tlak[bar]    Bg[-]      v[cp]
     1          0.997944   0.010946
     5          0.197949   0.011033
    10          0.097957   0.011142
    15          0.064631   0.011252
    20          0.047974   0.011363
    25          0.037984   0.011477
    30          0.031329   0.011595
    35          0.026579   0.011718
    40          0.023021   0.011846
    45          0.020258   0.011980
    50          0.018052   0.012121
    55          0.016252   0.012270
    60          0.014756   0.012429
/

--SGFN
-- 0.0000   0.0000000    0    0.0000000
-- 0.0500   0.0000000    0    0.0000000
-- 0.1000   0.0000000    0    0.0000000
-- 0.1500   0.0000000    0    0.0000000
-- 0.2000   0.0000000    0    0.0000000
-- 0.2500   0.0000000    0    0.0051020
-- 0.3000   0.0000000    0    0.0204082
-- 0.3500   0.0000000    0    0.0459184
-- 0.4000   0.0082645    0    0.0816327
-- 0.4500   0.0330578    0    0.1275510
-- 0.5000   0.0743802    0    0.1836735
-- 0.5500   0.1322314    0    0.2500000
-- 0.6000   0.2066116    0    0.3265307
-- 0.6500   0.2975206    0    0.4132653
-- 0.7000   0.4049587    0    0.5102041
-- 0.7500   0.5289257    0    0.6173470
-- 0.8000   0.6694216    0    0.7346940
-- 0.8500   0.8264465    0    0.8622450
-- 0.9000   1.0000000    0    1.0000000
-- 0.9500   1.0000000    0    1.0000000
-- 1.0000   1.0000000    0    1.0000000
--/


SGFN
 0.0000   0.0000000   0
 0.0500   0.0000000   0
 0.1000   0.0000000   0
 0.1500   0.0000000   0
 0.2000   0.0000000   0
 0.2500   0.0000000   0
 0.3000   0.0000000   0
 0.3500   0.0152199   0
 0.4000   0.0578704   0
 0.4500   0.1234375   0
 0.5000   0.2074074   0
 0.5500   0.3052662   0
 0.6000   0.4125001   0
 0.6500   0.5245948   0
 0.7000   0.6370370   0
 0.7500   0.7453125   0
 0.8000   0.8449075   0
 0.8500   0.9313079   0
 0.9000   1.0000000   0
 0.9500   1.0000000   0
 1.0000   1.0000000   0
/


--SWFN
--     0.00      0.00    540.00     450.00    540.00       0.00    700.000   0.00
--     0.03      0.00     43.20      36.00     43.20       0.00    225.000   0.00
--     0.05      0.00     18.00      15.00     22.00       0.00     75.000   0.00
--     0.08      0.00      9.60       8.00     14.60       0.00     32.000   0.00
--     0.20      0.05      4.80       4.00      6.50       0.00      8.500   0.00
--     0.40      0.20      3.60       3.00      4.35       0.00      6.410   0.00
--     0.60      0.50      2.40       2.00      2.60       0.10      4.350   0.01
--     0.80      1.00      0.01       0.01      1.20       0.50      2.600   0.05
--     1.00      1.00      0.00       0.00      0.00       0.82      1.200   0.08
--/                                                        1.00      0.538   0.10
--                                                         1.00      0.000   0.10
--

SWFN
     0.00     0.00    700.000
     0.03     0.00    225.000
     0.05     0.00     75.000
     0.08     0.00     32.000
     0.20     0.00      8.500
     0.30     0.00      6.410
     0.40     0.01      4.350
     0.60     0.05      2.600
     0.80     0.08      1.200
     0.90     0.10      0.538
     1.00     0.10      0.000
/



RPTPROPS
0 0 0 0 0 0 0 0 0 0
0 0 0 0 0 0 0 /


--********************************************************************--
--****                     R  E  G  I  O  N  S                    ****--
--********************************************************************--

REGIONS

--SATNUM
--  21462*1  /
--
--EQLNUM
--  21462*1  /
--
--BOX
--   1 64  1 20  1  6 /
--FIPNUM
--       7680*2    /
--
--BOX
--   1 56  1 18  1  2 /
--FIPNUM
--       2016*3    /


--********************************************************************--
--****                     S O L U T I O N                        ****--
--********************************************************************--

SOLUTION

EQUIL
510  40.0  530 /



RPTSOL
 40*0
/


--********************************************************************--
--****                    S  U  M  M  A  R  Y                     ****--
--********************************************************************--

SUMMARY

FGIP
FPR
FGPR
FGIR
WGPR
  S1
  S2 /
WBHP
S1
S2
/
WWPR
S1
/

--********************************************************************--
--****                  S  C  H  E  D  U  L  E                    ****--
--********************************************************************--

SCHEDULE

MESSAGES
   100000   100000   100000  1000      1*      1*
   100000   100000   100000  1000      1*      1*   /

--TUNING
--  0.100000 365.0000 0.100000 0.150000  3.000000 0.300000 0.100000 1.250000 /
--/
--/

TUNING
  0.100000 365.0000 0.100000 0.150000  3.000000 0.300000 0.100000 1.250000 /
  1* 0.04 4e-6 0.004 1* 0.20 4e-5 0.04    /
 /


--  1* 0.32 32e-6 0.032 1* 1.60 32e-5 0.32  /
--  1* 0.16 16e-6 0.016 1* 0.80 16e-5 0.16  /
--  1* 0.08 8e-6 0.008 1* 0.40 8e-5 0.08    /
--  1* 0.04 4e-6 0.004 1* 0.20 4e-5 0.04    /
--  1* 0.02 2e-6 0.002 1* 0.10 2e-5 0.02    /
--  1* 0.01 1e-6 0.001 1* 0.05 1e-5 0.01    /



WELSPECS
'S1      '  'GRP     '    3   3  1*  'GAS'  1*  'R-G'  'STOP'  'YES'  1*  'SEG'  1*  /
'S2      '  'GRP     '    7   7  1*  'GAS'  1*  'R-G'  'STOP'  'YES'  1*  'SEG'  1*  /
/


COMPDAT
'S1      '   3   3  1 2 'OPEN'  1*  1500  1*  3*  'Z' /
'S2      '   7   7  1 2 'OPEN'  1*  1500  1*  3*  'Z' /
/

RPTSCHED
-- PRES SOIL SWAT SGAS RS RV RESTART
   1    0    0    1    0  0  0       /

WCONPROD                                                        
'S1      ' 'OPEN' 'GRAT'  1*  1.0E20   2.0e6   2*  03.00  3* /
'S2      ' 'SHUT' 'GRAT'  1*  1.0E20   0.5e6   2*  03.00  3* /
/                                                               

GCONPROD 
FIELD GRATE  1* 1* 1.0E6 /
/

TSTEP
30*1
/

WCONPROD                                                        
'S1      ' 'OPEN' 'GRAT'  1*  1.0E20   0   2*  03.00  3* /
'S2      ' 'OPEN' 'GRAT'  1*  1.0E20   0   2*  03.00  3* /
/                                                              

TSTEP
30*1
/

--wconinje
--'S1      ' 'GAS' 'OPEN' 'RATE' 1e6 /
--'S2      ' 'GAS' 'OPEN' 'RATE' 1e6 /
--/
--
--TSTEP
--30*1
--/


-- RPTSCHED                              
-- -- PRES SOIL SWAT SGAS RS RV RESTART  
--    0    0    0    1    0  0  2        /

END
